powerfulcases/cases/matpower/case28da/case28da.raw
0, 1, 33, 0, 0, 60  / 28-Jan-2026 21:51:47 - MATPOWER 8.1


     1, 'BUS 1       ',        11, 3,    1,    1, 1,           1,           0,    1,    1,    1,    1
     2, 'BUS 2       ',        11, 1,    1,    1, 1,           1,           0,    1,    1,    1,    1
     3, 'BUS 3       ',        11, 1,    1,    1, 1,           1,           0,    1,    1,    1,    1
     4, 'BUS 4       ',        11, 1,    1,    1, 1,           1,           0,    1,    1,    1,    1
     5, 'BUS 5       ',        11, 1,    1,    1, 1,           1,           0,    1,    1,    1,    1
     6, 'BUS 6       ',        11, 1,    1,    1, 1,           1,           0,    1,    1,    1,    1
     7, 'BUS 7       ',        11, 1,    1,    1, 1,           1,           0,    1,    1,    1,    1
     8, 'BUS 8       ',        11, 1,    1,    1, 1,           1,           0,    1,    1,    1,    1
     9, 'BUS 9       ',        11, 1,    1,    1, 1,           1,           0,    1,    1,    1,    1
    10, 'BUS 10      ',        11, 1,    1,    1, 1,           1,           0,    1,    1,    1,    1
    11, 'BUS 11      ',        11, 1,    1,    1, 1,           1,           0,    1,    1,    1,    1
    12, 'BUS 12      ',        11, 1,    1,    1, 1,           1,           0,    1,    1,    1,    1
    13, 'BUS 13      ',        11, 1,    1,    1, 1,           1,           0,    1,    1,    1,    1
    14, 'BUS 14      ',        11, 1,    1,    1, 1,           1,           0,    1,    1,    1,    1
    15, 'BUS 15      ',        11, 1,    1,    1, 1,           1,           0,    1,    1,    1,    1
    16, 'BUS 16      ',        11, 1,    1,    1, 1,           1,           0,    1,    1,    1,    1
    17, 'BUS 17      ',        11, 1,    1,    1, 1,           1,           0,    1,    1,    1,    1
    18, 'BUS 18      ',        11, 1,    1,    1, 1,           1,           0,    1,    1,    1,    1
    19, 'BUS 19      ',        11, 1,    1,    1, 1,           1,           0,    1,    1,    1,    1
    20, 'BUS 20      ',        11, 1,    1,    1, 1,           1,           0,    1,    1,    1,    1
    21, 'BUS 21      ',        11, 1,    1,    1, 1,           1,           0,    1,    1,    1,    1
    22, 'BUS 22      ',        11, 1,    1,    1, 1,           1,           0,    1,    1,    1,    1
    23, 'BUS 23      ',        11, 1,    1,    1, 1,           1,           0,    1,    1,    1,    1
    24, 'BUS 24      ',        11, 1,    1,    1, 1,           1,           0,    1,    1,    1,    1
    25, 'BUS 25      ',        11, 1,    1,    1, 1,           1,           0,    1,    1,    1,    1
    26, 'BUS 26      ',        11, 1,    1,    1, 1,           1,           0,    1,    1,    1,    1
    27, 'BUS 27      ',        11, 1,    1,    1, 1,           1,           0,    1,    1,    1,    1
    28, 'BUS 28      ',        11, 1,    1,    1, 1,           1,           0,    1,    1,    1,    1
0 / END OF BUS DATA, BEGIN LOAD DATA
     2,  1, 1,    1,    1,   0.03528,  0.035993, 0, 0, 0, 0, 1, 1, 0
     3,  1, 1,    1,    1,     0.014,  0.014283, 0, 0, 0, 0, 1, 1, 0
     4,  1, 1,    1,    1,   0.03528,  0.035993, 0, 0, 0, 0, 1, 1, 0
     5,  1, 1,    1,    1,     0.014,  0.014283, 0, 0, 0, 0, 1, 1, 0
     6,  1, 1,    1,    1,   0.03528,  0.035993, 0, 0, 0, 0, 1, 1, 0
     7,  1, 1,    1,    1,   0.03528,  0.035993, 0, 0, 0, 0, 1, 1, 0
     8,  1, 1,    1,    1,   0.03528,  0.035993, 0, 0, 0, 0, 1, 1, 0
     9,  1, 1,    1,    1,     0.014,  0.014283, 0, 0, 0, 0, 1, 1, 0
    10,  1, 1,    1,    1,     0.014,  0.014283, 0, 0, 0, 0, 1, 1, 0
    11,  1, 1,    1,    1,     0.056,  0.057131, 0, 0, 0, 0, 1, 1, 0
    12,  1, 1,    1,    1,   0.03528,  0.035993, 0, 0, 0, 0, 1, 1, 0
    13,  1, 1,    1,    1,   0.03528,  0.035993, 0, 0, 0, 0, 1, 1, 0
    14,  1, 1,    1,    1,     0.014,  0.014283, 0, 0, 0, 0, 1, 1, 0
    15,  1, 1,    1,    1,   0.03528,  0.035993, 0, 0, 0, 0, 1, 1, 0
    16,  1, 1,    1,    1,   0.03528,  0.035993, 0, 0, 0, 0, 1, 1, 0
    17,  1, 1,    1,    1,   0.00896,  0.009141, 0, 0, 0, 0, 1, 1, 0
    18,  1, 1,    1,    1,   0.00896,  0.009141, 0, 0, 0, 0, 1, 1, 0
    19,  1, 1,    1,    1,   0.03528,  0.035993, 0, 0, 0, 0, 1, 1, 0
    20,  1, 1,    1,    1,   0.03528,  0.035993, 0, 0, 0, 0, 1, 1, 0
    21,  1, 1,    1,    1,     0.014,  0.014283, 0, 0, 0, 0, 1, 1, 0
    22,  1, 1,    1,    1,   0.03528,  0.035993, 0, 0, 0, 0, 1, 1, 0
    23,  1, 1,    1,    1,   0.00896,  0.009141, 0, 0, 0, 0, 1, 1, 0
    24,  1, 1,    1,    1,     0.056,  0.057131, 0, 0, 0, 0, 1, 1, 0
    25,  1, 1,    1,    1,   0.00896,  0.009141, 0, 0, 0, 0, 1, 1, 0
    26,  1, 1,    1,    1,   0.03528,  0.035993, 0, 0, 0, 0, 1, 1, 0
    27,  1, 1,    1,    1,   0.03528,  0.035993, 0, 0, 0, 0, 1, 1, 0
    28,  1, 1,    1,    1,   0.03528,  0.035993, 0, 0, 0, 0, 1, 1, 0
0 / END OF LOAD DATA, BEGIN FIXED SHUNT DATA
0 / END OF FIXED SHUNT DATA, BEGIN GENERATOR DATA
     1,  1,         0,         0,        10,       -10,        1, 0,     100, 0, 1, 0, 0, 1, 1, 100,        10,         0, 1, 1, 0, 1, 0, 1, 0, 1, 0, 1
0 / END OF GENERATOR DATA, BEGIN BRANCH DATA
     1,      2, 1, 0.009892562, 0.00677686,        0,       0,       0,       0, 0, 0, 0, 0, 1, 1, 0, 1, 1, 0, 1, 0, 1, 0, 1
     2,      3, 1, 0.01484298, 0.01017355,        0,       0,       0,       0, 0, 0, 0, 0, 1, 1, 0, 1, 1, 0, 1, 0, 1, 0, 1
     3,      4, 1, 0.01079339, 0.007396694,        0,       0,       0,       0, 0, 0, 0, 0, 1, 1, 0, 1, 1, 0, 1, 0, 1, 0, 1
     4,      5, 1, 0.01529752, 0.01047934,        0,       0,       0,       0, 0, 0, 0, 0, 1, 1, 0, 1, 1, 0, 1, 0, 1, 0, 1
     5,      6, 1, 0.01259504, 0.008628099,        0,       0,       0,       0, 0, 0, 0, 0, 1, 1, 0, 1, 1, 0, 1, 0, 1, 0, 1
     6,      7, 1, 0.0157438, 0.01078512,        0,       0,       0,       0, 0, 0, 0, 0, 1, 1, 0, 1, 1, 0, 1, 0, 1, 0, 1
     7,      8, 1, 0.009892562, 0.00677686,        0,       0,       0,       0, 0, 0, 0, 0, 1, 1, 0, 1, 1, 0, 1, 0, 1, 0, 1
     8,      9, 1, 0.005396694, 0.003694215,        0,       0,       0,       0, 0, 0, 0, 0, 1, 1, 0, 1, 1, 0, 1, 0, 1, 0, 1
     9,     10, 1, 0.009446281, 0.006471074,        0,       0,       0,       0, 0, 0, 0, 0, 1, 1, 0, 1, 1, 0, 1, 0, 1, 0, 1
     4,     11, 1, 0.02333058, 0.00968595,        0,       0,       0,       0, 0, 0, 0, 0, 1, 1, 0, 1, 1, 0, 1, 0, 1, 0, 1
    11,     12, 1, 0.009785124, 0.004057851,        0,       0,       0,       0, 0, 0, 0, 0, 1, 1, 0, 1, 1, 0, 1, 0, 1, 0, 1
    12,     13, 1, 0.008280992, 0.003438017,        0,       0,       0,       0, 0, 0, 0, 0, 1, 1, 0, 1, 1, 0, 1, 0, 1, 0, 1
    13,     14, 1, 0.003760331, 0.001561983,        0,       0,       0,       0, 0, 0, 0, 0, 1, 1, 0, 1, 1, 0, 1, 0, 1, 0, 1
    14,     15, 1, 0.004512397, 0.001876033,        0,       0,       0,       0, 0, 0, 0, 0, 1, 1, 0, 1, 1, 0, 1, 0, 1, 0, 1
     5,     16, 1, 0.02107438, 0.008743802,        0,       0,       0,       0, 0, 0, 0, 0, 1, 1, 0, 1, 1, 0, 1, 0, 1, 0, 1
     6,     17, 1, 0.01128926, 0.00468595,        0,       0,       0,       0, 0, 0, 0, 0, 1, 1, 0, 1, 1, 0, 1, 0, 1, 0, 1
    17,     18, 1, 0.006768595, 0.002809917,        0,       0,       0,       0, 0, 0, 0, 0, 1, 1, 0, 1, 1, 0, 1, 0, 1, 0, 1
    18,     19, 1, 0.01279339, 0.005305785,        0,       0,       0,       0, 0, 0, 0, 0, 1, 1, 0, 1, 1, 0, 1, 0, 1, 0, 1
    19,     20, 1, 0.01128926, 0.00468595,        0,       0,       0,       0, 0, 0, 0, 0, 1, 1, 0, 1, 1, 0, 1, 0, 1, 0, 1
    20,     21, 1, 0.02935537, 0.01218182,        0,       0,       0,       0, 0, 0, 0, 0, 1, 1, 0, 1, 1, 0, 1, 0, 1, 0, 1
     7,     22, 1, 0.01279339, 0.005305785,        0,       0,       0,       0, 0, 0, 0, 0, 1, 1, 0, 1, 1, 0, 1, 0, 1, 0, 1
    22,     23, 1, 0.009024793, 0.003743802,        0,       0,       0,       0, 0, 0, 0, 0, 1, 1, 0, 1, 1, 0, 1, 0, 1, 0, 1
    23,     24, 1, 0.007520661, 0.003123967,        0,       0,       0,       0, 0, 0, 0, 0, 1, 1, 0, 1, 1, 0, 1, 0, 1, 0, 1
    24,     25, 1, 0.003760331, 0.001561983,        0,       0,       0,       0, 0, 0, 0, 0, 1, 1, 0, 1, 1, 0, 1, 0, 1, 0, 1
    25,     26, 1, 0.003008264, 0.001247934,        0,       0,       0,       0, 0, 0, 0, 0, 1, 1, 0, 1, 1, 0, 1, 0, 1, 0, 1
     8,     27, 1, 0.004512397, 0.001867769,        0,       0,       0,       0, 0, 0, 0, 0, 1, 1, 0, 1, 1, 0, 1, 0, 1, 0, 1
    27,     28, 1, 0.002256198, 0.0009338843,        0,       0,       0,       0, 0, 0, 0, 0, 1, 1, 0, 1, 1, 0, 1, 0, 1, 0, 1
0 / END OF BRANCH DATA, BEGIN TRANSFORMER DATA
0 / END OF TRANSFORMER DATA, BEGIN AREA DATA
0 / END OF AREA DATA, BEGIN TWO-TERMINAL DC DATA
0 / END OF TWO-TERMINAL DC DATA, BEGIN VOLTAGE SOURCE CONVERTER DATA
0 / END OF VOLTAGE SOURCE CONVERTER DATA, BEGIN IMPEDANCE CORRECTION DATA
0 / END OF IMPEDANCE CORRECTION DATA, BEGIN MULTI-TERMINAL DC DATA
0 / END OF MULTI-TERMINAL DC DATA, BEGIN MULTI-SECTION LINE DATA
0 / END OF MULTI-SECTION LINE DATA, BEGIN ZONE DATA
0 / END OF ZONE DATA, BEGIN INTER-AREA TRANSFER DATA
0 / END OF INTER-AREA TRANSFER DATA, BEGIN OWNER DATA
0 / END OF OWNER DATA, BEGIN FACTS CONTROL DEVICE DATA
0 / END OF FACTS CONTROL DEVICE DATA, BEGIN SWITCHED SHUNT DATA
0 / END OF SWITCHED SHUNT DATA, BEGIN GNE DEVICE DATA
0 / END OF GNE DEVICE DATA, BEGIN INDUCTION MACHINE DATA
0 / END OF INDUCTION MACHINE DATA
Q
